/*--------------------------------*- C++ -*----------------------------------*\
| =========                 |                                                 |
| \\      /  F ield         | OpenFOAM: The Open Source CFD Toolbox           |
|  \\    /   O peration     | Version:  dev                                   |
|   \\  /    A nd           | Web:      www.OpenFOAM.org                      |
|    \\/     M anipulation  |                                                 |
\*---------------------------------------------------------------------------*/
FoamFile
{
    version     2.0;
    format      ascii;
    class       dictionary;
    object      snappyHexMeshDict;
}
// * * * * * * * * * * * * * * * * * * * * * * * * * * * * * * * * * * * * * //

#includeEtc "caseDicts/mesh/generation/snappyHexMeshDict.cfg"

castellatedMesh on;
snap            off;
addLayers       off;

geometry
{
    train
    {
        type triSurfaceMesh;
        file "train.stl";
    }
};

castellatedMeshControls
{
    features
    (
//      { file "CAD.eMesh"; level 1; }
    );

    refinementSurfaces
    {
        train
        {
            level (2 2);
        }
    }

    refinementRegions
    {

    }

    locationInMesh (-0.01 0.1 0.1); // Offset from (0 0 0) to avoid
                                     // coinciding with face or edge
    nCellsBetweenLevels 3;
}

snapControls
{
//  explicitFeatureSnap    true;
//  implicitFeatureSnap    false;
}

addLayersControls
{
    layers
    {
        "train.*"
        {
            nSurfaceLayers 6;
        } 
        bottom
        {
            nSurfaceLayers 6;
        } 
    }

    relativeSizes       false; // false, usually with firstLayerThickness
    expansionRatio      1.2;
//    finalLayerThickness 0.5;
    minThickness        1e-3;
    firstLayerThickness 0.01;

//  maxThicknessToMedialRatio 0.6;
}

meshQualityControls
{
    minTetQuality -1e+30;
}

/*writeFlags
(
//    scalarLevels
    layerSets
    layerFields
); */

mergeTolerance 1e-6;

// ************************************************************************* //
